Circuit: * C:\Users\tobia\Dropbox\Projekte\Projekte\optoreceiver\simulation20kHz(real).asc

Direct Newton iteration for .op point succeeded.

Date: Sat Jun 23 12:21:58 2018
Total elapsed time: 0.052 seconds.

tnom = 27
temp = 27
method = trap
totiter = 22
traniter = 0
tranpoints = 0
accept = 0
rejected = 0
matrix size = 23
fillins = 8
solver = Normal
Matrix Compiler1:     110 opcodes
Matrix Compiler2: 2.75 KB object code size
